03_OpenDSS_Circuits/Bellhaven_Circuit_Opendss/Lines_SK.dss
New Line.259005049 Phases= 3 Bus1=259005051.1.2.3 Bus2=259005041.1.2.3 Length=116.30 units=m  Spacing=8'-ARM-STANDARD-3PH wires=['336-ACSR-B-18X1' '336-ACSR-B-18X1' '336-ACSR-B-18X1' '1/0-ACSR-B-6X1']
New Line.258851430 Phases= 1 Bus1=258851422.1     Bus2=258851432.1     Length=38.25  units=m  Spacing=VERTICAL-1-PH-60-1PH wires=['2-ACSR-B-6X1' '2-ACSR-B-6X1']
New Line.263701592 Bus1=258851447.1     Bus2=263701594.1     LineCode=1/0-AL-TRXLPELCJ-15KV Phases= 1 Length=1.52   units=m
New Line.258839951 Phases= 3 Bus1=258839948.1.2.3 Bus2=258839953.1.2.3 Length=36.69  units=m  Spacing=8'-ARM-NON-CENTER-POST-3PH wires=['336-ACSR-B-18X1' '336-ACSR-B-18X1' '336-ACSR-B-18X1' '1/0-ACSR-B-6X1']
New Line.258851158 Phases= 3 Bus1=258851155.1.2.3 Bus2=258851160.1.2.3 Length=55.14  units=m  Spacing=8'-ARM-NON-CENTER-POST-3PH wires=['2-ACSR-B-6X1' '2-ACSR-B-6X1' '2-ACSR-B-6X1' '1/0-ACSR-B-6X1']
New Line.258850626 Phases= 3 Bus1=258850564.1.2.3 Bus2=258850628.1.2.3 Length=25.32  units=m  Spacing=HORIZ-LINE-POST-3PH wires=['336-ACSR-B-18X1' '336-ACSR-B-18X1' '336-ACSR-B-18X1' '1/0-ACSR-B-6X1']
New Line.258850743 Phases= 3 Bus1=258850740.1.2.3 Bus2=258850745.1.2.3 Length=4.49   units=m  Spacing=8'-ARM-NON-CENTER-POST-3PH wires=['2-ACSR-B-6X1' '2-ACSR-B-6X1' '2-ACSR-B-6X1' '2-ACSR-B-6X1']
New Line.259500286 Phases= 3 Bus1=258840393.1.2.3 Bus2=258840397.1.2.3 Length=17.14  units=m  Spacing=8'-ARM-NON-CENTER-POST-3PH wires=['336-ACSR-WP-18X1' '336-ACSR-WP-18X1' '336-ACSR-WP-18X1' '1/0-ACSR-B-6X1']
New Line.260972104 Bus1=260972105.1     Bus2=260972091.1     LineCode=1/0-AL-TRXLPELCJ-15KV Phases= 1 Length=151.10 units=m
New Line.258851215 Phases= 3 Bus1=258851212.1.2.3 Bus2=258851217.1.2.3 Length=55.47  units=m  Spacing=8'-ARM-NON-CENTER-POST-3PH wires=['2-ACSR-B-6X1' '2-ACSR-B-6X1' '2-ACSR-B-6X1' '1/0-ACSR-B-6X1']
New Line.469800069 Bus1=264311802.1.2.3 Bus2=469800067.1.2.3 LineCode=1/0-AL-TRXLPELCJ-25KV Phases= 3 Length=1.01   units=m
New Line.263511676 Phases= 3 Bus1=263511673.1.2.3 Bus2=258851451.1.2.3 Length=14.00  units=m  Spacing=8'-ARM-NON-CENTER-POST-3PH wires=['2-ACSR-B-6X1' '2-ACSR-B-6X1' '2-ACSR-B-6X1' '1/0-ACSR-B-6X1']
New Line.259004983 Phases= 3 Bus1=259004985.1.2.3 Bus2=259004984.1.2.3 Length=83.12  units=m  Spacing=HORIZ-LINE-POST-3PH wires=['336-ACSR-WP-18X1' '336-ACSR-WP-18X1' '336-ACSR-WP-18X1' '1/0-ACSR-B-6X1']
New Line.263515132 Phases= 2 Bus1=263515129.1.3   Bus2=258851323.1.3   Length=5.90   units=m  Spacing=8'-ARM-STANDARD-2PH wires=['6-CU-B-S' '6-CU-B-S' '6-CU-B-S']
New Line.258850589 Phases= 3 Bus1=258850586.1.2.3 Bus2=258850591.1.2.3 Length=30.52  units=m  Spacing=8'-ARM-NON-CENTER-POST-3PH wires=['1/0-ACSR-B-6X1' '1/0-ACSR-B-6X1' '1/0-ACSR-B-6X1' '1/0-ACSR-B-6X1']
New Line.264494197 Phases= 3 Bus1=258840047.1.2.3 Bus2=264494199.1.2.3 Length=1.53   units=m  Spacing=8'-ARM-NON-CENTER-POST-3PH wires=['336-ACSR-B-18X1' '336-ACSR-B-18X1' '336-ACSR-B-18X1' '2-CU-B-7']
New Line.263730577 Bus1=259237105.2     Bus2=263730579.2     LineCode=1/0-AL-TRXLPELCJ-15KV Phases= 1 Length=1.52   units=m
New Line.258840482 Phases= 3 Bus1=258840479.1.2.3 Bus2=258840484.1.2.3 Length=40.78  units=m  Spacing=8'-ARM-STANDARD-3PH wires=['2-ACSR-B-6X1' '2-ACSR-B-6X1' '2-ACSR-B-6X1' '1/0-ACSR-B-6X1']
New Line.258850703 Phases= 3 Bus1=258850700.1.2.3 Bus2=258850705.1.2.3 Length=5.35   units=m  Spacing=HORIZ-LINE-POST-3PH wires=['336-ACSR-B-18X1' '336-ACSR-B-18X1' '336-ACSR-B-18X1' '1/0-ACSR-B-6X1']
New Line.259357192 Phases= 3 Bus1=259357184.1.2.3 Bus2=259357188.1.2.3 Length=8.44   units=m  Spacing=8'-ARM-NON-CENTER-POST-3PH wires=['1/0-ACSR-WP-6X1' '1/0-ACSR-WP-6X1' '1/0-ACSR-WP-6X1' '2-ACSR-B-6X1']
New Line.258851032 Phases= 3 Bus1=258851029.1.2.3 Bus2=258851034.1.2.3 Length=20.01  units=m  Spacing=8'-ARM-NON-CENTER-POST-3PH wires=['2-ACSR-B-6X1' '2-ACSR-B-6X1' '2-ACSR-B-6X1' '2-ACSR-B-6X1']
New Line.258850528 Phases= 3 Bus1=258850518.1.2.3 Bus2=258850530.1.2.3 Length=91.29  units=m  Spacing=DBL-CKT-1-ARM-ONE-SIDE-3PH wires=['336-ACSR-B-18X1' '336-ACSR-B-18X1' '336-AAC-B-19' '1/0-ACSR-B-6X1']
New Line.260745475 Bus1=260745472.3     Bus2=260745427.3     LineCode=1/0-AL-HMWPECN-15KV Phases= 1 Length=13.47  units=m
New Line.258839924 Phases= 3 Bus1=258839921.1.2.3 Bus2=258839926.1.2.3 Length=56.94  units=m  Spacing=8'-ARM-NON-CENTER-POST-3PH wires=['336-ACSR-WP-18X1' '336-ACSR-WP-18X1' '336-ACSR-WP-18X1' '1/0-ACSR-B-6X1']
New Line.259005056 Phases= 3 Bus1=258850975.1.2.3 Bus2=259005051.1.2.3 Length=31.61  units=m  Spacing=8'-ARM-STANDARD-3PH wires=['336-ACSR-WP-18X1' '336-ACSR-WP-18X1' '336-ACSR-WP-18X1' '1/0-ACSR-WP-6X1']
New Line.263565098 Bus1=263565095.1.2.3 Bus2=260784230.1.2.3 LineCode=1/0-AL-HMWPECN-15KV Phases= 3 Length=83.06  units=m
New Line.258840120 Phases= 2 Bus1=258840079.1.2   Bus2=258840122.1.2   Length=28.91  units=m  Spacing=8'-ARM-STANDARD-2PH wires=['4-CU-B-7' '4-CU-B-7' '1/0-ACSR-B-6X1']
New Line.472684083 Bus1=462745747.1.2.3 Bus2=472684080.1.2.3 LineCode=1/0-AL-HMWPECN-15KV Phases= 3 Length=239.10 units=m
New Line.258851067 Phases= 1 Bus1=258851064.3     Bus2=258851069.3     Length=64.09  units=m  Spacing=VERTICAL-1-PH-60-1PH wires=['2-ACSR-B-6X1' '2-ACSR-B-6X1']
New Line.466987550 Bus1=460932491.1.2.3 Bus2=466987549.1.2.3 LineCode=1/0-AL-HMWPECN-15KV Phases= 3 Length=79.53  units=m
New Line.263515028 Bus1=258851049.1     Bus2=263515030.1     LineCode=1/0-AL-HMWPECN-15KV Phases= 1 Length=16.83  units=m
New Line.258839983 Phases= 3 Bus1=258839980.1.2.3 Bus2=258839985.1.2.3 Length=155.80 units=m  Spacing=8'-ARM-NON-CENTER-POST-3PH wires=['336-ACSR-B-18X1' '336-ACSR-B-18X1' '336-ACSR-B-18X1' '1/0-ACSR-B-6X1']
New Line.263515159 Bus1=263515156.1.2.3 Bus2=260745487.1.2.3 LineCode=1/0-AL-HMWPECN-15KV Phases= 3 Length=79.88  units=m
New Line.258839966 Phases= 3 Bus1=258839958.1.2.3 Bus2=258839968.1.2.3 Length=34.17  units=m  Spacing=8'-ARM-NON-CENTER-POST-3PH wires=['336-ACSR-B-18X1' '336-ACSR-B-18X1' '336-ACSR-B-18X1' '1/0-ACSR-B-6X1']
New Line.460932566 Phases= 3 Bus1=258840430.1.2.3 Bus2=460932563.1.2.3 Length=57.34  units=m  Spacing=8'-ARM-NON-CENTER-POST-3PH wires=['336-ACSR-WP-18X1' '336-ACSR-WP-18X1' '336-ACSR-WP-18X1' '1/0-ACSR-B-6X1']
New Line.258851094 Phases= 3 Bus1=258851091.1.2.3 Bus2=258851096.1.2.3 Length=76.66  units=m  Spacing=8'-ARM-NON-CENTER-POST-3PH wires=['2-ACSR-B-6X1' '2-ACSR-B-6X1' '2-ACSR-B-6X1' '1/0-ACSR-B-6X1']
New Line.259121513 Phases= 3 Bus1=259121514.1.2.3 Bus2=259121515.1.2.3 Length=44.43  units=m  Spacing=8'-ARM-STANDARD-3PH wires=['2-ACSR-B-6X1' '2-ACSR-B-6X1' '2-ACSR-B-6X1' '2-ACSR-B-6X1']
New Line.258850733 Phases= 3 Bus1=258850735.1.2.3 Bus2=258850734.1.2.3 Length=47.18  units=m  Spacing=HORIZ-LINE-POST-3PH wires=['336-ACSR-B-18X1' '336-ACSR-B-18X1' '336-ACSR-B-18X1' '1/0-ACSR-B-6X1']
New Line.264504391 Phases= 3 Bus1=258850730.1.2.3 Bus2=264504389.1.2.3 Length=60.90  units=m  Spacing=HORIZ-LINE-POST-3PH wires=['336-ACSR-B-18X1' '336-ACSR-B-18X1' '336-ACSR-B-18X1' '1/0-ACSR-B-6X1']
New Line.258851341 Phases= 2 Bus1=258851338.1.3   Bus2=258851343.1.3   Length=6.56   units=m  Spacing=8'-ARM-STANDARD-2PH wires=['6-CU-B-S' '6-CU-B-S' '2-CU-B-7']
New Line.258840162 Phases= 3 Bus1=258840159.1.2.3 Bus2=258840164.1.2.3 Length=28.10  units=m  Spacing=8'-ARM-NON-CENTER-POST-3PH wires=['336-ACSR-B-18X1' '336-ACSR-B-18X1' '336-ACSR-B-18X1' '2-CU-B-7']
New Line.258851296 Phases= 3 Bus1=258851293.1.2.3 Bus2=258851298.1.2.3 Length=12.22  units=m  Spacing=8'-ARM-NON-CENTER-POST-3PH wires=['2-ACSR-B-6X1' '2-ACSR-B-6X1' '2-ACSR-B-6X1' '2-ACSR-B-6X1']
New Line.258840193 Phases= 3 Bus1=258840185.1.2.3 Bus2=258840195.1.2.3 Length=46.93  units=m  Spacing=8'-ARM-NON-CENTER-POST-3PH wires=['336-ACSR-B-18X1' '336-ACSR-B-18X1' '336-ACSR-B-18X1' '2-CU-B-7']
New Line.263862874 Phases= 1 Bus1=258840210.1     Bus2=263862876.1     Length=1.52   units=m  Spacing=VERTICAL-1-PH-104-1PH wires=['2-ACSR-B-6X1' '2-ACSR-B-6X1']
New Line.258840332 Phases= 3 Bus1=258840329.1.2.3 Bus2=258840334.1.2.3 Length=3.08   units=m  Spacing=8'-ARM-NON-CENTER-POST-3PH wires=['1/0-ACSR-WP-6X1' '1/0-ACSR-WP-6X1' '1/0-ACSR-WP-6X1' '1/0-ACSR-B-6X1']
New Line.460932411 Bus1=259357189.1.2.3 Bus2=460932413.1.2.3 LineCode=1/0-AL-TRXLPELCJ-25KV Phases= 3 Length=1.51   units=m
New Line.258850683 Phases= 3 Bus1=258850675.1.2.3 Bus2=258850685.1.2.3 Length=23.36  units=m  Spacing=HORIZ-LINE-POST-3PH wires=['336-ACSR-B-18X1' '336-ACSR-B-18X1' '336-ACSR-B-18X1' '1/0-ACSR-B-6X1']
New Line.472684368 Bus1=460932401.1.2.3 Bus2=261124294.1.2.3 LineCode=1/0-AL-TRXLPELCJ-25KV Phases= 3 Length=326.20 units=m
New Line.258851143 Phases= 3 Bus1=258851138.1.2.3 Bus2=258851145.1.2.3 Length=44.01  units=m  Spacing=8'-ARM-NON-CENTER-POST-3PH wires=['2-ACSR-B-6X1' '2-ACSR-B-6X1' '2-ACSR-B-6X1' '1/0-ACSR-B-6X1']
New Line.260784313 Bus1=260784310.3     Bus2=260784315.3     LineCode=1/0-AL-HMWPECN-15KV Phases= 1 Length=35.54  units=m
New Line.263565093 Bus1=259005099.1.2.3 Bus2=263565095.1.2.3 LineCode=1/0-AL-HMWPECN-15KV Phases= 3 Length=1.52   units=m
New Line.258851316 Phases= 3 Bus1=258851313.1.2.3 Bus2=258851318.1.2.3 Length=3.06   units=m  Spacing=8'-ARM-STANDARD-3PH wires=['2-ACSR-B-6X1' '2-ACSR-B-6X1' '2-ACSR-B-6X1' '2-ACSR-B-6X1']
New Line.260784283 Bus1=260784280.3     Bus2=260784285.3     LineCode=1/0-AL-HMWPECN-15KV Phases= 1 Length=73.50  units=m
New Line.258840364 Phases= 3 Bus1=258840365.1.2.3 Bus2=258840366.1.2.3 Length=16.75  units=m  Spacing=8'-ARM-STANDARD-3PH wires=['2-ACSR-B-6X1' '2-ACSR-B-6X1' '2-ACSR-B-6X1' '2-ACSR-B-6X1']
New Line.263565066 Bus1=259004985.3     Bus2=263565068.3     LineCode=1/0-AL-HMWPECN-15KV Phases= 1 Length=1.53   units=m
New Line.258850542 Phases= 3 Bus1=258850537.1.2.3 Bus2=258850544.1.2.3 Length=6.52   units=m  Spacing=HORIZ-LINE-POST-3PH wires=['336-ACSR-B-18X1' '336-ACSR-B-18X1' '336-ACSR-B-18X1' '1/0-ACSR-B-6X1']
New Line.263862865 Bus1=259371848.1     Bus2=263862867.1     LineCode=1/0-AL-TRXLPELCJ-15KV Phases= 1 Length=1.52   units=m
New Line.263515141 Phases= 2 Bus1=263515138.1.2   Bus2=258851377.1.2   Length=21.51  units=m  Spacing=8'-ARM-STANDARD-2PH wires=['6-CU-B-S' '6-CU-B-S' '2-CU-B-7']
New Line.263511716 Phases= 3 Bus1=258840205.1.2.3 Bus2=263511718.1.2.3 Length=1.53   units=m  Spacing=8'-ARM-NON-CENTER-POST-3PH wires=['2-ACSR-B-6X1' '2-ACSR-B-6X1' '2-ACSR-B-6X1' '2-ACSR-B-6X1']
New Line.258839857 Phases= 3 Bus1=258839854.1.2.3 Bus2=258839859.1.2.3 Length=27.73  units=m  Spacing=8'-ARM-NON-CENTER-POST-3PH wires=['336-ACSR-B-18X1' '336-ACSR-B-18X1' '336-ACSR-B-18X1' '1/0-ACSR-B-6X1']
New Line.288683098 Phases= 3 Bus1=288683093.1.2.3 Bus2=259357184.1.2.3 Length=4.06   units=m  Spacing=8'-ARM-NON-CENTER-POST-3PH wires=['1/0-ACSR-WP-6X1' '1/0-ACSR-WP-6X1' '1/0-ACSR-WP-6X1' '2-ACSR-B-6X1']
New Line.264530189 Phases= 1 Bus1=264530186.1     Bus2=259312123.1     Length=25.99  units=m  Spacing=VERTICAL-1-PH-104-1PH wires=['1/0-ACSR-B-6X1' '1/0-ACSR-B-6X1']
New Line.263511694 Phases= 3 Bus1=263511691.1.2.3 Bus2=258840132.1.2.3 Length=18.02  units=m  Spacing=8'-ARM-NON-CENTER-POST-3PH wires=['2-ACSR-B-6X1' '2-ACSR-B-6X1' '2-ACSR-B-6X1' '2-ACSR-B-6X1']
New Line.263511698 Phases= 3 Bus1=258840042.1.2.3 Bus2=263511700.1.2.3 Length=1.53   units=m  Spacing=8'-ARM-NON-CENTER-POST-3PH wires=['2-ACSR-B-6X1' '2-ACSR-B-6X1' '2-ACSR-B-6X1' '2-ACSR-B-6X1']
New Line.258840406 Phases= 3 Bus1=258840403.1.2.3 Bus2=258840408.1.2.3 Length=58.54  units=m  Spacing=8'-ARM-NON-CENTER-POST-3PH wires=['336-ACSR-WP-18X1' '336-ACSR-WP-18X1' '336-ACSR-WP-18X1' '1/0-ACSR-B-6X1']
New Line.258851089 Phases= 3 Bus1=258851084.1.2.3 Bus2=258851091.1.2.3 Length=45.00  units=m  Spacing=8'-ARM-NON-CENTER-POST-3PH wires=['2-ACSR-B-6X1' '2-ACSR-B-6X1' '2-ACSR-B-6X1' '1/0-ACSR-B-6X1']
New Line.469800070 Bus1=469800067.1.2.3 Bus2=472683966.1.2.3 LineCode=1/0-AL-TRXLPELCJ-25KV Phases= 3 Length=5.98   units=m
New Line.258851178 Phases= 3 Bus1=258851170.1.2.3 Bus2=258851180.1.2.3 Length=57.26  units=m  Spacing=8'-ARM-NON-CENTER-POST-3PH wires=['2-ACSR-B-6X1' '2-ACSR-B-6X1' '2-ACSR-B-6X1' '1/0-ACSR-B-6X1']
New Line.260745310 Bus1=260745311.1.2.3 Bus2=260745312.1.2.3 LineCode=1/0-AL-HMWPECN-15KV Phases= 3 Length=36.36  units=m
New Line.258851435 Phases= 1 Bus1=258851392.2     Bus2=258851437.2     Length=19.45  units=m  Spacing=VERTICAL-1-PH-60-1PH wires=['2-ACSR-B-6X1' '2-CU-B-7']
New Line.258840240 Phases= 3 Bus1=258840235.1.2.3 Bus2=258840242.1.2.3 Length=87.18  units=m  Spacing=8'-ARM-NON-CENTER-POST-3PH wires=['336-ACSR-B-18X1' '336-ACSR-B-18X1' '336-ACSR-B-18X1' '2-CU-B-7']
New Line.261002774 Bus1=261002775.1     Bus2=261002770.1     LineCode=1/0-AL-TRXLPELCJ-15KV Phases= 1 Length=18.68  units=m
New Line.460932567 Phases= 3 Bus1=460932563.1.2.3 Bus2=258840439.1.2.3 Length=51.59  units=m  Spacing=8'-ARM-NON-CENTER-POST-3PH wires=['336-ACSR-WP-18X1' '336-ACSR-WP-18X1' '336-ACSR-WP-18X1' '1/0-ACSR-B-6X1']
New Line.258851153 Phases= 3 Bus1=258851128.1.2.3 Bus2=258851155.1.2.3 Length=38.98  units=m  Spacing=8'-ARM-NON-CENTER-POST-3PH wires=['2-ACSR-B-6X1' '2-ACSR-B-6X1' '2-ACSR-B-6X1' '1/0-ACSR-B-6X1']
New Line.263701624 Bus1=263701621.3     Bus2=260972111.3     LineCode=1/0-AL-TRXLPELCJ-15KV Phases= 1 Length=165.70 units=m
New Line.258840433 Phases= 3 Bus1=258840430.1.2.3 Bus2=258840435.1.2.3 Length=17.35  units=m  Spacing=8'-ARM-NON-CENTER-POST-3PH wires=['2-ACSR-B-6X1' '2-ACSR-B-6X1' '2-ACSR-B-6X1' '2-ACSR-B-6X1']
New Line.260972119 Bus1=260972116.3     Bus2=260972080.3     LineCode=1/0-AL-TRXLPELCJ-15KV Phases= 1 Length=127.60 units=m
New Line.258840183 Phases= 3 Bus1=258840164.1.2.3 Bus2=258840185.1.2.3 Length=95.72  units=m  Spacing=8'-ARM-NON-CENTER-POST-3PH wires=['336-ACSR-B-18X1' '336-ACSR-B-18X1' '336-ACSR-B-18X1' '2-CU-B-7']
New Line.258850678 Phases= 3 Bus1=258850670.1.2.3 Bus2=258850680.1.2.3 Length=34.57  units=m  Spacing=8'-ARM-NON-CENTER-POST-3PH wires=['2-ACSR-B-6X1' '2-ACSR-B-6X1' '2-ACSR-B-6X1' '2-ACSR-B-6X1']
New Line.263514880 Bus1=263514877.1.2.3 Bus2=260745397.1.2.3 LineCode=1/0-AL-HMWPECN-15KV Phases= 3 Length=47.38  units=m
New Line.259583268 Phases= 3 Bus1=258850750.1.2.3 Bus2=258850754.1.2.3 Length=10.99  units=m  Spacing=8'-ARM-NON-CENTER-POST-3PH wires=['2-ACSR-B-6X1' '2-ACSR-B-6X1' '2-ACSR-B-6X1' '2-ACSR-B-6X1']
New Line.263973875 Bus1=263973872.1.2.3 Bus2=260784240.1.2.3 LineCode=1/0-AL-HMWPECN-15KV Phases= 3 Length=106.10 units=m
New Line.261031172 Bus1=261031173.2     Bus2=260972141.2     LineCode=1/0-AL-TRXLPELCJ-15KV Phases= 1 Length=59.92  units=m
New Line.261002734 Bus1=261002735.2     Bus2=261002705.2     LineCode=1/0-AL-TRXLPELCJ-15KV Phases= 1 Length=74.95  units=m
New Line.263514835 Bus1=263514832.1.2.3 Bus2=260745334.1.2.3 LineCode=1/0-AL-HMWPECN-15KV Phases= 3 Length=26.55  units=m
New Line.258850718 Phases= 3 Bus1=258850715.1.2.3 Bus2=258850720.1.2.3 Length=46.61  units=m  Spacing=HORIZ-LINE-POST-3PH wires=['336-ACSR-B-18X1' '336-ACSR-B-18X1' '336-ACSR-B-18X1' '1/0-ACSR-B-6X1']
New Line.259237108 Phases= 2 Bus1=259004980.1.2   Bus2=259237110.1.2   Length=22.94  units=m  Spacing=8'-ARM-STANDARD-2PH wires=['2-ACSR-B-6X1' '2-ACSR-B-6X1' '2-ACSR-B-6X1']
New Line.258840349 Phases= 3 Bus1=258840346.1.2.3 Bus2=258840351.1.2.3 Length=56.08  units=m  Spacing=8'-ARM-NON-CENTER-POST-3PH wires=['1/0-ACSR-WP-6X1' '1/0-ACSR-WP-6X1' '1/0-ACSR-WP-6X1' '1/0-ACSR-B-6X1']
New Line.263511757 Phases= 1 Bus1=263511754.1     Bus2=258840383.1     Length=112.00 units=m  Spacing=VERTICAL-1-PH-60-1PH wires=['2-ACSR-B-6X1' '1/0-ACSR-B-6X1']
New Line.259005029 Phases= 3 Bus1=259005031.1.2.3 Bus2=259005026.1.2.3 Length=9.97   units=m  Spacing=8'-ARM-STANDARD-3PH wires=['336-ACSR-B-18X1' '336-ACSR-B-18X1' '336-ACSR-B-18X1' '1/0-ACSR-B-6X1']
New Line.263515118 Bus1=258851118.1     Bus2=263515120.1     LineCode=1/0-AL-HMWPECN-15KV Phases= 1 Length=1.52   units=m
New Line.259172454 Phases= 2 Bus1=258851372.1.2   Bus2=258851376.1.2   Length=49.55  units=m  Spacing=8'-ARM-STANDARD-2PH wires=['6-CU-B-S' '6-CU-B-S' '2-CU-B-7']
New Line.258851017 Phases= 1 Bus1=258851014.2     Bus2=258851019.2     Length=162.30 units=m  Spacing=VERTICAL-1-PH-60-1PH wires=['2-ACSR-B-6X1' '2-ACSR-B-6X1']
New Line.258851363 Phases= 3 Bus1=258851360.1.2.3 Bus2=258851365.1.2.3 Length=29.26  units=m  Spacing=8'-ARM-STANDARD-3PH wires=['1/0-ACSR-B-6X1' '1/0-ACSR-B-6X1' '1/0-ACSR-B-6X1' '1/0-ACSR-B-6X1']
New Line.258850621 Phases= 3 Bus1=258850576.1.2.3 Bus2=258850623.1.2.3 Length=15.38  units=m  Spacing=8'-ARM-NON-CENTER-POST-3PH wires=['2-ACSR-B-6X1' '2-ACSR-B-6X1' '2-ACSR-B-6X1' '2-ACSR-B-6X1']
New Line.471228156 Phases= 3 Bus1=258840462.1.2.3 Bus2=471228158.1.2.3 Length=1.53   units=m  Spacing=8'-ARM-STANDARD-3PH wires=['2-ACSR-B-6X1' '2-ACSR-B-6X1' '2-ACSR-B-6X1' '1/0-ACSR-B-6X1']
New Line.260784308 Bus1=260784305.3     Bus2=260784310.3     LineCode=1/0-AL-HMWPECN-15KV Phases= 1 Length=86.67  units=m
New Line.258840423 Phases= 3 Bus1=258840413.1.2.3 Bus2=258840425.1.2.3 Length=61.67  units=m  Spacing=8'-ARM-NON-CENTER-POST-3PH wires=['336-ACSR-WP-18X1' '336-ACSR-WP-18X1' '336-ACSR-WP-18X1' '1/0-ACSR-B-6X1']
New Line.258850579 Phases= 3 Bus1=258850569.1.2.3 Bus2=258850581.1.2.3 Length=24.37  units=m  Spacing=8'-ARM-NON-CENTER-POST-3PH wires=['336-ACSR-B-18X1' '336-ACSR-B-18X1' '336-ACSR-B-18X1' '1/0-ACSR-B-6X1']
New Line.258840198 Phases= 3 Bus1=258840195.1.2.3 Bus2=258840200.1.2.3 Length=58.11  units=m  Spacing=8'-ARM-NON-CENTER-POST-3PH wires=['336-ACSR-B-18X1' '336-ACSR-B-18X1' '336-ACSR-B-18X1' '2-CU-B-7']
New Line.258851116 Phases= 1 Bus1=258851108.1     Bus2=258851118.1     Length=27.01  units=m  Spacing=VERTICAL-1-PH-60-1PH wires=['1/0-ACSR-B-6X1' '1/0-ACSR-B-6X1']
New Line.258850668 Phases= 3 Bus1=258850665.1.2.3 Bus2=258850670.1.2.3 Length=80.59  units=m  Spacing=HORIZ-LINE-POST-3PH wires=['336-ACSR-B-18X1' '336-ACSR-B-18X1' '336-ACSR-B-18X1' '1/0-ACSR-B-6X1']
New Line.472684225 Bus1=261124309.1.2.3 Bus2=261124314.1.2.3 LineCode=1/0-AL-TRXLPELCJ-25KV Phases= 3 Length=390.90 units=m
New Line.263515015 Bus1=263515012.1.2.3 Bus2=260745402.1.2.3 LineCode=1/0-AL-HMWPECN-15KV Phases= 3 Length=79.80  units=m
New Line.258851242 Phases= 1 Bus1=258851237.3     Bus2=258851244.3     Length=71.06  units=m  Spacing=VERTICAL-1-PH-60-1PH wires=['2-ACSR-B-6X1' '2-ACSR-B-6X1']
New Line.263515168 Bus1=263515165.1.2.3 Bus2=260745494.1.2.3 LineCode=1/0-AL-HMWPECN-15KV Phases= 3 Length=43.98  units=m
New Line.263701597 Bus1=263701594.1     Bus2=260972105.1     LineCode=1/0-AL-TRXLPELCJ-15KV Phases= 1 Length=368.00 units=m
New Line.263514898 Phases= 3 Bus1=263514895.1.2.3 Bus2=258850912.1.2.3 Length=17.76  units=m  Spacing=8'-ARM-NON-CENTER-POST-3PH wires=['2-ACSR-B-6X1' '2-ACSR-B-6X1' '2-ACSR-B-6X1' '2-ACSR-B-6X1']
New Line.258840487 Phases= 3 Bus1=258840484.1.2.3 Bus2=258840489.1.2.3 Length=119.20 units=m  Spacing=8'-ARM-STANDARD-3PH wires=['2-ACSR-B-6X1' '2-ACSR-B-6X1' '2-ACSR-B-6X1' '1/0-ACSR-B-6X1']
New Line.258851007 Phases= 3 Bus1=258850999.1.2.3 Bus2=258851009.1.2.3 Length=44.89  units=m  Spacing=8'-ARM-NON-CENTER-POST-3PH wires=['2-ACSR-B-6X1' '2-ACSR-B-6X1' '2-ACSR-B-6X1' '2-ACSR-B-6X1']
New Line.263701637 Bus1=258851446.2     Bus2=263701639.2     LineCode=1/0-AL-TRXLPELCJ-15KV Phases= 1 Length=1.52   units=m
New Line.472684231 Bus1=261124314.1.2.3 Bus2=261123019.1.2.3 LineCode=1/0-AL-TRXLPELCJ-25KV Phases= 3 Length=116.40 units=m
New Line.258839889 Phases= 3 Bus1=258839886.1.2.3 Bus2=258839891.1.2.3 Length=45.72  units=m  Spacing=8'-ARM-NON-CENTER-POST-3PH wires=['336-ACSR-B-18X1' '336-ACSR-B-18X1' '336-ACSR-B-18X1' '1/0-ACSR-B-6X1']
New Line.258840391 Phases= 3 Bus1=258840388.1.2.3 Bus2=258840393.1.2.3 Length=6.00   units=m  Spacing=8'-ARM-NON-CENTER-POST-3PH wires=['336-ACSR-WP-18X1' '336-ACSR-WP-18X1' '336-ACSR-WP-18X1' '1/0-ACSR-B-6X1']
New Line.258851281 Phases= 3 Bus1=258851278.1.2.3 Bus2=258851283.1.2.3 Length=40.25  units=m  Spacing=8'-ARM-NON-CENTER-POST-3PH wires=['2-ACSR-B-6X1' '2-ACSR-B-6X1' '2-ACSR-B-6X1' '2-ACSR-B-6X1']
New Line.258850927 Phases= 3 Bus1=258850924.1.2.3 Bus2=258850929.1.2.3 Length=18.89  units=m  Spacing=8'-ARM-NON-CENTER-POST-3PH wires=['2-ACSR-B-6X1' '2-ACSR-B-6X1' '2-ACSR-B-6X1' '2-ACSR-B-6X1']
New Line.258850606 Phases= 3 Bus1=258850603.1.2.3 Bus2=258850608.1.2.3 Length=46.97  units=m  Spacing=8'-ARM-NON-CENTER-POST-3PH wires=['1/0-ACSR-B-6X1' '1/0-ACSR-B-6X1' '1/0-ACSR-B-6X1' '1/0-ACSR-B-6X1']
New Line.258851168 Phases= 3 Bus1=258851160.1.2.3 Bus2=258851170.1.2.3 Length=45.14  units=m  Spacing=8'-ARM-NON-CENTER-POST-3PH wires=['2-ACSR-B-6X1' '2-ACSR-B-6X1' '2-ACSR-B-6X1' '1/0-ACSR-B-6X1']
New Line.384045894 Phases= 3 Bus1=259004973.1.2.3 Bus2=384045889.1.2.3 Length=124.50 units=m  Spacing=HORIZ-LINE-POST-3PH wires=['336-ACSR-WP-18X1' '336-ACSR-WP-18X1' '336-ACSR-WP-18X1' '1/0-ACSR-B-6X1']
New Line.259005102 Phases= 3 Bus1=259005099.1.2.3 Bus2=259005104.1.2.3 Length=36.66  units=m  Spacing=8'-ARM-NON-CENTER-POST-3PH wires=['2-ACSR-B-6X1' '2-ACSR-B-6X1' '2-ACSR-B-6X1' '2-ACSR-B-6X1']
New Line.264516157 Phases= 3 Bus1=264516154.1.2.3 Bus2=258840005.1.2.3 Length=49.41  units=m  Spacing=8'-ARM-NON-CENTER-POST-3PH wires=['336-ACSR-B-18X1' '336-ACSR-B-18X1' '336-ACSR-B-18X1' '1/0-ACSR-B-6X1']
New Line.258840280 Phases= 3 Bus1=258840277.1.2.3 Bus2=258840282.1.2.3 Length=19.06  units=m  Spacing=8'-ARM-NON-CENTER-POST-3PH wires=['336-ACSR-B-18X1' '336-ACSR-B-18X1' '336-ACSR-B-18X1' '2-CU-B-7']
New Line.264259415 Bus1=260784230.1.2.3 Bus2=264259413.1.2.3 LineCode=1/0-AL-HMWPECN-15KV Phases= 3 Length=329.70 units=m
New Line.258840396 Phases= 3 Bus1=258840397.1.2.3 Bus2=258840398.1.2.3 Length=49.24  units=m  Spacing=8'-ARM-NON-CENTER-POST-3PH wires=['336-ACSR-WP-18X1' '336-ACSR-WP-18X1' '336-ACSR-WP-18X1' '1/0-ACSR-B-6X1']
New Line.258840077 Phases= 2 Bus1=258840072.1.2   Bus2=258840079.1.2   Length=37.91  units=m  Spacing=8'-ARM-STANDARD-2PH wires=['4-CU-B-7' '4-CU-B-7' '1/0-ACSR-B-6X1']
New Line.264279388 Bus1=260745427.3     Bus2=264279390.3     LineCode=1/0-AL-HMWPECN-15KV Phases= 1 Length=1.52   units=m
New Line.264021669 Bus1=264021666.1.2.3 Bus2=261311161.1.2.3 LineCode=1/0-AL-TRXLPELCJ-15KV Phases= 3 Length=22.81  units=m
New Line.259005000 Phases= 3 Bus1=259005002.1.2.3 Bus2=259004995.1.2.3 Length=52.08  units=m  Spacing=HORIZ-LINE-POST-3PH wires=['336-ACSR-WP-18X1' '336-ACSR-WP-18X1' '336-ACSR-WP-18X1' '1/0-ACSR-B-6X1']
New Line.263511685 Phases= 3 Bus1=263511682.1.2.3 Bus2=258840142.1.2.3 Length=63.23  units=m  Spacing=8'-ARM-NON-CENTER-POST-3PH wires=['2-ACSR-B-6X1' '2-ACSR-B-6X1' '2-ACSR-B-6X1' '1/0-ACSR-B-6X1']
New Line.258840015 Phases= 3 Bus1=258840012.1.2.3 Bus2=258840017.1.2.3 Length=71.81  units=m  Spacing=8'-ARM-NON-CENTER-POST-3PH wires=['336-ACSR-B-18X1' '336-ACSR-B-18X1' '336-ACSR-B-18X1' '2-CU-B-7']
New Line.258840450 Phases= 3 Bus1=258840440.1.2.3 Bus2=258840452.1.2.3 Length=133.20 units=m  Spacing=8'-ARM-NON-CENTER-POST-3PH wires=['336-ACSR-WP-18X1' '336-ACSR-WP-18X1' '336-ACSR-WP-18X1' '1/0-ACSR-B-6X1']
New Line.258851336 Phases= 2 Bus1=258851328.1.3   Bus2=258851338.1.3   Length=51.18  units=m  Spacing=8'-ARM-STANDARD-2PH wires=['6-CU-B-S' '6-CU-B-S' '2-CU-B-7']
New Line.261031162 Bus1=261031159.1     Bus2=260972090.1     LineCode=1/0-AL-TRXLPELCJ-15KV Phases= 1 Length=152.10 units=m
New Line.263514866 Phases= 3 Bus1=258850650.1.2.3 Bus2=263514868.1.2.3 Length=1.53   units=m  Spacing=8'-ARM-NON-CENTER-POST-3PH wires=['2-ACSR-B-6X1' '2-ACSR-B-6X1' '2-ACSR-B-6X1' '2-ACSR-B-6X1']
New Line.258851106 Phases= 3 Bus1=258851103.1.2.3 Bus2=258851108.1.2.3 Length=20.75  units=m  Spacing=8'-ARM-NON-CENTER-POST-3PH wires=['2-ACSR-B-6X1' '2-ACSR-B-6X1' '2-ACSR-B-6X1' '1/0-ACSR-B-6X1']
New Line.288683091 Phases= 3 Bus1=288683092.1.2.3 Bus2=288683093.1.2.3 Length=1.50   units=m  Spacing=8'-ARM-NON-CENTER-POST-3PH wires=['1/0-ACSR-WP-6X1' '1/0-ACSR-WP-6X1' '1/0-ACSR-WP-6X1' '2-ACSR-B-6X1']
New Line.264304369 Bus1=261107771.1     Bus2=264304367.1     LineCode=1/0-AL-TRXLPELCJ-15KV Phases= 1 Length=95.62  units=m
New Line.258840310 Phases= 3 Bus1=258840307.1.2.3 Bus2=258840312.1.2.3 Length=53.23  units=m  Spacing=8'-ARM-NON-CENTER-POST-3PH wires=['336-ACSR-B-18X1' '336-ACSR-B-18X1' '336-ACSR-B-18X1' '2-CU-B-7']
New Line.263515037 Phases= 1 Bus1=258851059.3     Bus2=263515039.3     Length=1.53   units=m  Spacing=VERTICAL-1-PH-60-1PH wires=['2-ACSR-B-6X1' '2-ACSR-B-6X1']
New Line.259005080 Phases= 3 Bus1=259005077.1.2.3 Bus2=259005082.1.2.3 Length=163.30 units=m  Spacing=8'-ARM-STANDARD-3PH wires=['1/0-ACSR-B-6X1' '1/0-ACSR-B-6X1' '1/0-ACSR-B-6X1' '1/0-ACSR-B-6X1']
New Line.466987551 Bus1=466987549.1.2.3 Bus2=466987507.1.2.3 LineCode=1/0-AL-HMWPECN-15KV Phases= 3 Length=8.36   units=m
New Line.260784258 Bus1=260784255.3     Bus2=260784260.3     LineCode=1/0-AL-HMWPECN-15KV Phases= 1 Length=104.80 units=m
New Line.258839852 Phases= 3 Bus1=258839840.1.2.3 Bus2=258839854.1.2.3 Length=19.05  units=m  Spacing=8'-ARM-NON-CENTER-POST-3PH wires=['336-ACSR-B-18X1' '336-ACSR-B-18X1' '336-ACSR-B-18X1' '1/0-ACSR-B-6X1']
New Line.472684297 Bus1=472684299.1.2.3 Bus2=261124289.1.2.3 LineCode=1/0-AL-TRXLPELCJ-25KV Phases= 3 Length=1.51   units=m
New Line.472684281 Bus1=261123020.1.2.3 Bus2=472684279.1.2.3 LineCode=1/0-AL-TRXLPELCJ-25KV Phases= 3 Length=224.00 units=m
New Line.259121508 Phases= 1 Bus1=258840511.3     Bus2=258840515.3     Length=11.65  units=m  Spacing=VERTICAL-1-PH-60-1PH wires=['2-ACSR-B-6X1' '2-ACSR-B-6X1']
New Line.258840260 Phases= 3 Bus1=258840257.1.2.3 Bus2=258840262.1.2.3 Length=34.79  units=m  Spacing=8'-ARM-NON-CENTER-POST-3PH wires=['336-ACSR-B-18X1' '336-ACSR-B-18X1' '336-ACSR-B-18X1' '2-CU-B-7']
New Line.258840300 Phases= 3 Bus1=258840297.1.2.3 Bus2=258840302.1.2.3 Length=21.37  units=m  Spacing=8'-ARM-NON-CENTER-POST-3PH wires=['336-ACSR-B-18X1' '336-ACSR-B-18X1' '336-ACSR-B-18X1' '2-CU-B-7']
New Line.258851252 Phases= 3 Bus1=258851249.1.2.3 Bus2=258851254.1.2.3 Length=50.46  units=m  Spacing=8'-ARM-NON-CENTER-POST-3PH wires=['2-ACSR-B-6X1' '2-ACSR-B-6X1' '2-ACSR-B-6X1' '2-ACSR-B-6X1']
New Line.258851445 Phases= 3 Bus1=258851446.1.2.3 Bus2=258851447.1.2.3 Length=16.85  units=m  Spacing=8'-ARM-STANDARD-3PH wires=['1/0-ACSR-B-6X1' '1/0-ACSR-B-6X1' '1/0-ACSR-B-6X1' '1/0-ACSR-B-6X1']
New Line.258850713 Phases= 3 Bus1=258850710.1.2.3 Bus2=258850715.1.2.3 Length=45.44  units=m  Spacing=HORIZ-LINE-POST-3PH wires=['336-ACSR-B-18X1' '336-ACSR-B-18X1' '336-ACSR-B-18X1' '1/0-ACSR-B-6X1']
New Line.258840411 Phases= 3 Bus1=258840408.1.2.3 Bus2=258840413.1.2.3 Length=55.66  units=m  Spacing=8'-ARM-NON-CENTER-POST-3PH wires=['336-ACSR-WP-18X1' '336-ACSR-WP-18X1' '336-ACSR-WP-18X1' '1/0-ACSR-B-6X1']
New Line.258839869 Phases= 3 Bus1=258839864.1.2.3 Bus2=258839871.1.2.3 Length=197.80 units=m  Spacing=8'-ARM-NON-CENTER-POST-3PH wires=['336-ACSR-B-18X1' '336-ACSR-B-18X1' '336-ACSR-B-18X1' '1/0-ACSR-B-6X1']
New Line.460932289 Phases= 1 Bus1=258840356.2     Bus2=460932291.2     Length=1.51   units=m  Spacing=VERTICAL-1-PH-60-1PH wires=['2-ACSR-B-6X1' '1/0-ACSR-B-6X1']
New Line.259176597 Phases= 3 Bus1=258850618.1.2.3 Bus2=259121514.1.2.3 Length=28.81  units=m  Spacing=8'-ARM-STANDARD-3PH wires=['2-ACSR-B-6X1' '2-ACSR-B-6X1' '2-ACSR-B-6X1' '2-ACSR-B-6X1']
New Line.263761831 Phases= 3 Bus1=258840011.1.2.3 Bus2=263761833.1.2.3 Length=1.53   units=m  Spacing=8'-ARM-NON-CENTER-POST-3PH wires=['336-ACSR-B-18X1' '336-ACSR-B-18X1' '336-ACSR-B-18X1' '2-CU-B-7']
New Line.264379502 Phases= 3 Bus1=264379499.1.2.3 Bus2=258850633.1.2.3 Length=74.10  units=m  Spacing=HORIZ-LINE-POST-3PH wires=['336-ACSR-B-18X1' '336-ACSR-B-18X1' '336-ACSR-B-18X1' '1/0-ACSR-B-6X1']
New Line.258851271 Phases= 3 Bus1=258851268.1.2.3 Bus2=258851273.1.2.3 Length=25.60  units=m  Spacing=8'-ARM-NON-CENTER-POST-3PH wires=['2-ACSR-B-6X1' '2-ACSR-B-6X1' '2-ACSR-B-6X1' '1/0-ACSR-B-6X1']
New Line.258851012 Phases= 1 Bus1=258851004.2     Bus2=258851014.2     Length=32.75  units=m  Spacing=VERTICAL-1-PH-60-1PH wires=['2-ACSR-B-6X1' '2-ACSR-B-6X1']
New Line.264530184 Phases= 1 Bus1=259004990.1     Bus2=264530186.1     Length=1.52   units=m  Spacing=VERTICAL-1-PH-104-1PH wires=['1/0-ACSR-B-6X1' '1/0-ACSR-B-6X1']
New Line.472684357 Bus1=261124294.1.2.3 Bus2=261124288.1.2.3 LineCode=1/0-AL-TRXLPELCJ-25KV Phases= 3 Length=68.24  units=m
New Line.261002769 Bus1=261002770.1     Bus2=261002695.1     LineCode=1/0-AL-TRXLPELCJ-15KV Phases= 1 Length=75.25  units=m
New Line.258839988 Phases= 3 Bus1=258839985.1.2.3 Bus2=258839990.1.2.3 Length=71.49  units=m  Spacing=8'-ARM-NON-CENTER-POST-3PH wires=['336-ACSR-B-18X1' '336-ACSR-B-18X1' '336-ACSR-B-18X1' '1/0-ACSR-B-6X1']
New Line.258840344 Phases= 3 Bus1=258840339.1.2.3 Bus2=258840346.1.2.3 Length=67.69  units=m  Spacing=8'-ARM-NON-CENTER-POST-3PH wires=['1/0-ACSR-WP-6X1' '1/0-ACSR-WP-6X1' '1/0-ACSR-WP-6X1' '1/0-ACSR-B-6X1']
New Line.264316524 Bus1=261002700.1     Bus2=264316522.1     LineCode=1/0-AL-TRXLPELCJ-15KV Phases= 1 Length=58.04  units=m
New Line.263515033 Bus1=263515030.1     Bus2=260745412.1     LineCode=1/0-AL-HMWPECN-15KV Phases= 1 Length=25.83  units=m
New Line.258850574 Phases= 3 Bus1=258850569.1.2.3 Bus2=258850576.1.2.3 Length=12.69  units=m  Spacing=8'-ARM-NON-CENTER-POST-3PH wires=['2-ACSR-B-6X1' '2-ACSR-B-6X1' '2-ACSR-B-6X1' '2-ACSR-B-6X1']
New Line.258850601 Phases= 3 Bus1=258850596.1.2.3 Bus2=258850603.1.2.3 Length=46.84  units=m  Spacing=8'-ARM-NON-CENTER-POST-3PH wires=['1/0-ACSR-B-6X1' '1/0-ACSR-B-6X1' '1/0-ACSR-B-6X1' '1/0-ACSR-B-6X1']
New Line.263701628 Bus1=258851446.1     Bus2=263701630.1     LineCode=1/0-AL-TRXLPELCJ-15KV Phases= 1 Length=1.52   units=m
New Line.259172459 Phases= 3 Bus1=259172460.1.2.3 Bus2=259172461.1.2.3 Length=46.61  units=m  Spacing=8'-ARM-STANDARD-3PH wires=['1/0-ACSR-B-6X1' '1/0-ACSR-B-6X1' '1/0-ACSR-B-6X1' '1/0-ACSR-B-6X1']
New Line.263701606 Bus1=263701603.2     Bus2=261031178.2     LineCode=1/0-AL-TRXLPELCJ-15KV Phases= 1 Length=731.40 units=m
New Line.261002764 Bus1=261002761.1     Bus2=261002700.1     LineCode=1/0-AL-TRXLPELCJ-15KV Phases= 1 Length=2.83   units=m
New Line.261031177 Bus1=261031178.2     Bus2=261031173.2     LineCode=1/0-AL-TRXLPELCJ-15KV Phases= 1 Length=101.10 units=m
New Line.263515055 Bus1=258851096.2     Bus2=263515057.2     LineCode=1/0-AL-HMWPECN-15KV Phases= 1 Length=1.52   units=m
New Line.263515091 Phases= 3 Bus1=258851212.1.2.3 Bus2=263515093.1.2.3 Length=1.52   units=m  Spacing=8'-ARM-NON-CENTER-POST-3PH wires=['2-ACSR-B-6X1' '2-ACSR-B-6X1' '2-ACSR-B-6X1' '1/0-ACSR-B-6X1']
New Line.258851266 Phases= 3 Bus1=258851249.1.2.3 Bus2=258851268.1.2.3 Length=24.45  units=m  Spacing=8'-ARM-NON-CENTER-POST-3PH wires=['2-ACSR-B-6X1' '2-ACSR-B-6X1' '2-ACSR-B-6X1' '1/0-ACSR-B-6X1']
New Line.263638670 Phases= 1 Bus1=263638667.3     Bus2=258840516.3     Length=121.40 units=m  Spacing=VERTICAL-1-PH-60-1PH wires=['2-ACSR-B-6X1' '2-ACSR-B-6X1']
New Line.258840223 Phases= 3 Bus1=258840220.1.2.3 Bus2=258840225.1.2.3 Length=71.37  units=m  Spacing=8'-ARM-NON-CENTER-POST-3PH wires=['336-ACSR-B-18X1' '336-ACSR-B-18X1' '336-ACSR-B-18X1' '2-CU-B-7']
New Line.263862879 Phases= 1 Bus1=263862876.1     Bus2=259371838.1     Length=25.28  units=m  Spacing=VERTICAL-1-PH-104-1PH wires=['2-ACSR-B-6X1' '2-ACSR-B-6X1']
New Line.258851247 Phases= 3 Bus1=258851217.1.2.3 Bus2=258851249.1.2.3 Length=43.79  units=m  Spacing=8'-ARM-NON-CENTER-POST-3PH wires=['2-ACSR-B-6X1' '2-ACSR-B-6X1' '2-ACSR-B-6X1' '1/0-ACSR-B-6X1']
New Line.264567406 Phases= 3 Bus1=258850730.1.2.3 Bus2=264567408.1.2.3 Length=1.53   units=m  Spacing=8'-ARM-NON-CENTER-POST-3PH wires=['2-ACSR-B-6X1' '2-ACSR-B-6X1' '2-ACSR-B-6X1' '2-ACSR-B-6X1']
New Line.258840315 Phases= 3 Bus1=258840312.1.2.3 Bus2=258840317.1.2.3 Length=24.01  units=m  Spacing=8'-ARM-NON-CENTER-POST-3PH wires=['336-ACSR-B-18X1' '336-ACSR-B-18X1' '336-ACSR-B-18X1' '2-CU-B-7']
New Line.263714475 Phases= 1 Bus1=258840219.1     Bus2=263714477.1     Length=1.52   units=m  Spacing=VERTICAL-1-PH-104-1PH wires=['2-ACSR-B-6X1' '2-ACSR-B-6X1']
New Line.466987567 Bus1=466987507.1.2.3 Bus2=466987565.1.2.3 LineCode=1/0-AL-HMWPECN-15KV Phases= 3 Length=7.60   units=m
New Line.263511689 Phases= 3 Bus1=258840027.1.2.3 Bus2=263511691.1.2.3 Length=1.53   units=m  Spacing=8'-ARM-NON-CENTER-POST-3PH wires=['2-ACSR-B-6X1' '2-ACSR-B-6X1' '2-ACSR-B-6X1' '2-ACSR-B-6X1']
New Line.263514830 Bus1=258850623.1.2.3 Bus2=263514832.1.2.3 LineCode=1/0-AL-HMWPECN-15KV Phases= 3 Length=1.52   units=m
New Line.258851148 Phases= 3 Bus1=258851145.1.2.3 Bus2=258851150.1.2.3 Length=50.29  units=m  Spacing=8'-ARM-NON-CENTER-POST-3PH wires=['2-ACSR-B-6X1' '2-ACSR-B-6X1' '2-ACSR-B-6X1' '1/0-ACSR-B-6X1']
New Line.258851136 Phases= 3 Bus1=258851133.1.2.3 Bus2=258851138.1.2.3 Length=24.80  units=m  Spacing=8'-ARM-NON-CENTER-POST-3PH wires=['2-ACSR-B-6X1' '2-ACSR-B-6X1' '2-ACSR-B-6X1' '1/0-ACSR-B-6X1']
New Line.258851037 Phases= 1 Bus1=258840435.2     Bus2=258851039.2     Length=31.29  units=m  Spacing=VERTICAL-1-PH-60-1PH wires=['1/0-ACSR-B-6X1' '1/0-ACSR-B-6X1']
New Line.258851259 Phases= 3 Bus1=258851249.1.2.3 Bus2=258851261.1.2.3 Length=24.09  units=m  Spacing=8'-ARM-NON-CENTER-POST-3PH wires=['2-ACSR-B-6X1' '2-ACSR-B-6X1' '2-ACSR-B-6X1' '2-ACSR-B-6X1']
New Line.263761822 Phases= 3 Bus1=258850581.1.2.3 Bus2=263761824.1.2.3 Length=1.53   units=m  Spacing=8'-ARM-NON-CENTER-POST-3PH wires=['1/0-ACSR-B-6X1' '1/0-ACSR-B-6X1' '1/0-ACSR-B-6X1' '1/0-ACSR-B-6X1']
New Line.263514812 Bus1=258850613.1.2.3 Bus2=263514814.1.2.3 LineCode=1/0-AL-HMWPECN-15KV Phases= 3 Length=1.53   units=m
New Line.258850698 Phases= 3 Bus1=258850695.1.2.3 Bus2=258850700.1.2.3 Length=26.91  units=m  Spacing=HORIZ-LINE-POST-3PH wires=['336-ACSR-B-18X1' '336-ACSR-B-18X1' '336-ACSR-B-18X1' '1/0-ACSR-B-6X1']
New Line.258850768 Phases= 3 Bus1=258850765.1.2.3 Bus2=258850770.1.2.3 Length=26.73  units=m  Spacing=8'-ARM-NON-CENTER-POST-3PH wires=['2-ACSR-B-6X1' '2-ACSR-B-6X1' '2-ACSR-B-6X1' '2-ACSR-B-6X1']
New Line.263514889 Phases= 3 Bus1=263514886.1.2.3 Bus2=258850934.1.2.3 Length=94.21  units=m  Spacing=8'-ARM-NON-CENTER-POST-3PH wires=['2-ACSR-B-6X1' '2-ACSR-B-6X1' '2-ACSR-B-6X1' '2-ACSR-B-6X1']
New Line.258851464 Phases= 3 Bus1=258851452.1.2.3 Bus2=258851466.1.2.3 Length=47.02  units=m  Spacing=8'-ARM-NON-CENTER-POST-3PH wires=['2-ACSR-B-6X1' '2-ACSR-B-6X1' '2-ACSR-B-6X1' '1/0-ACSR-B-6X1']
New Line.259005044 Phases= 1 Bus1=259005041.2     Bus2=259005046.2     Length=32.92  units=m  Spacing=VERTICAL-1-PH-60-1PH wires=['2-ACSR-B-6X1' '2-ACSR-B-6X1']
New Line.263565071 Bus1=263565068.3     Bus2=260784275.3     LineCode=1/0-AL-HMWPECN-15KV Phases= 1 Length=67.04  units=m
New Line.263514997 Bus1=263514994.1.2.3 Bus2=260745387.1.2.3 LineCode=1/0-AL-HMWPECN-15KV Phases= 3 Length=12.44  units=m
New Line.263515123 Bus1=263515120.1     Bus2=260745447.1     LineCode=1/0-AL-HMWPECN-15KV Phases= 1 Length=149.80 units=m
...
